#-----------------------------------------------------------------------------
[General]
simtime-resolution = ps
seed-0-mt = 1206523 #796506272



[Config InitialConfig]
description = Two hosts communicating wirelessly
network = myAdHocNetwork
sim-time-limit = 1800s

#WORLD CONFIG
# Visualizer settings
*.visualizerForRealWorld.osgVisualizer.typename = "IntegratedOsgVisualizer"
*.visualizerForRealWorld.osgVisualizer.sceneVisualizer.typename = "SceneOsgEarthVisualizer"
*.visualizerForRealWorld.osgVisualizer.sceneVisualizer.mapFile = "boston.earth"

# Coordinates of the scene origin on the map
*.coordinateSystem.sceneLongitude = -71.06792deg
*.coordinateSystem.sceneLatitude = 42.35717deg


*.host*.ipv4.arp.typename = "GlobalArp" #To be switched : "Arp"


#**************************
#Host Source Config
#Sensör verilerini gönderen uygulama
#Hello paketini gönderen uygulama
#**************************
*.hostSource.numApps = 1
*.hostSource.app[0].typename = "UdpBasicApp"
*.hostSource.app[0].destAddresses = "hostDestination"
*.hostSource.app[0].destPort = 5000
*.hostSource.app[0].messageLength = 1024B
*.hostSource.app[0].sendInterval = exponential(1s)
*.hostSource.app[0].packetName = "UDPData"
*.hostSource.app[0].startTime = 10s #Ýlk gönderilen mesaj (AODV paketi) içeriði bu uygulamadan gelecek. Dolayýsýyla AODV paketlerinde mesaj iletimi gerçeklenebilir.


#**************************
#Host Destination Config
#Hello paketini gönderen uygulama
#Sensör verilerini alan uygulama
#**************************
*.hostDestination.numApps = 1
*.hostDestination.app[0].typename = "UdpSink"
*.hostDestination.app[0].localPort = 5000


#### HELLO PACKET'LERI ICIN OLAN CONFIG
###**************************
###Host Source Config
###Sensör verilerini gönderen uygulama
###Hello paketini gönderen uygulama
###**************************
##*.hostSource.numApps = 2
##*.hostSource.app[0].typename = "UdpBasicApp"
##*.hostSource.app[0].destAddresses = "hostDestination"
##*.hostSource.app[0].destPort = 5000
##*.hostSource.app[0].messageLength = 1024B
##*.hostSource.app[0].sendInterval = exponential(1s)
##*.hostSource.app[0].packetName = "UDPData"
##*.hostSource.app[0].startTime = 10s #Ýlk gönderilen mesaj (AODV paketi) içeriði bu uygulamadan gelecek. Dolayýsýyla AODV paketlerinde mesaj iletimi gerçeklenebilir.
##*.hostSource.app[1].typename = "PingApp"
##*.hostSource.app[1].destAddr = "hostController"
##*.hostSource.app[1].packetSize = 10B
##*.hostSource.app[1].sendInterval = 1s
##*.hostSource.app[1].count = 1
##*.hostSource.app[1].stopTime = 2s
##
###**************************
###Host Destination Config
###Hello paketini gönderen uygulama
###Sensör verilerini alan uygulama
###**************************
##*.hostDestination.numApps = 2
##*.hostDestination.app[1].typename = "PingApp"
##*.hostDestination.app[1].destAddr = "hostController"
##*.hostDestination.app[1].packetSize = 10B
##*.hostDestination.app[1].sendInterval = 1s
##*.hostDestination.app[1].count = 1
##*.hostDestination.app[1].stopTime = 2s
##*.hostDestination.app[0].typename = "UdpSink"
##*.hostDestination.app[0].localPort = 5000
##
###**************************
###Host A,B,E,F Config
###Hello paketini gönderen uygulama
###**************************
##*.hostA.numApps = 1
##*.hostB.numApps = 1
##*.hostE.numApps = 1
##*.hostF.numApps = 1
##*.hostA.app[0].typename = "PingApp"
##*.hostA.app[0].destAddr = "hostController"
##*.hostA.app[0].packetSize = 10B
##*.hostA.app[0].sendInterval = 1s
##*.hostA.app[0].count = 1
##*.hostA.app[0].stopTime = 2s
##*.hostB.app[0].typename = "PingApp"
##*.hostB.app[0].destAddr = "hostController"
##*.hostB.app[0].packetSize = 10B
##*.hostB.app[0].sendInterval = 1s
##*.hostB.app[0].count = 1
##*.hostB.app[0].stopTime = 2s
##*.hostE.app[0].typename = "PingApp"
##*.hostE.app[0].destAddr = "hostController"
##*.hostE.app[0].packetSize = 10B
##*.hostE.app[0].sendInterval = 1s
##*.hostE.app[0].count = 1
##*.hostE.app[0].stopTime = 2s
##*.hostF.app[0].typename = "PingApp"
##*.hostF.app[0].destAddr = "hostController"
##*.hostF.app[0].packetSize = 10B
##*.hostF.app[0].sendInterval = 1s
##*.hostF.app[0].count = 1
##*.hostF.app[0].stopTime = 2s




#Random-Way Point Mobility Config
# AODV Mobility modeli
#Configured
*.hostA.mobility.typename = "RandomWaypointMobility"
*.hostA.mobility.nodeIndex = 0
*.hostA.mobility.initialX = 1983.4m
*.hostA.mobility.initialY = 1362.448m
*.hostA.mobility.initialZ = 0m
*.hostA.mobility.constraintAreaMinX = 850m 
*.hostA.mobility.constraintAreaMinY = 150m 
*.hostA.mobility.constraintAreaMinZ = 0m   
*.hostA.mobility.constraintAreaMaxX = 2450m
*.hostA.mobility.constraintAreaMaxY = 1750m
*.hostA.mobility.constraintAreaMaxZ = 0m   
*.hostA.mobility.speed    = 20mps 
*.hostA.mobility.waitTime = 0.2s

#Configured
*.hostB.mobility.typename = "RandomWaypointMobility"
*.hostB.mobility.nodeIndex = 1
*.hostB.mobility.initialX = 880.4m
*.hostB.mobility.initialY = 344.448m
*.hostB.mobility.initialZ = 0m
*.hostB.mobility.constraintAreaMinX = 850m 
*.hostB.mobility.constraintAreaMinY = 150m 
*.hostB.mobility.constraintAreaMinZ = 0m   
*.hostB.mobility.constraintAreaMaxX = 2450m
*.hostB.mobility.constraintAreaMaxY = 1750m
*.hostB.mobility.constraintAreaMaxZ = 0m   
*.hostB.mobility.speed    = 20mps
*.hostB.mobility.waitTime = 200ms

#Source mobility configured.
*.hostSource.mobility.typename = "RandomWaypointMobility"
*.hostSource.mobility.nodeIndex = 2
*.hostSource.mobility.initialX = 196.4m
*.hostSource.mobility.initialY = 875.448m
*.hostSource.mobility.constraintAreaMinX = 70m
*.hostSource.mobility.constraintAreaMinY = 300m
*.hostSource.mobility.constraintAreaMinZ = 0m
*.hostSource.mobility.constraintAreaMaxX = 450m
*.hostSource.mobility.constraintAreaMaxY = 1800m
*.hostSource.mobility.constraintAreaMaxZ = 0m
*.hostSource.mobility.speed    = 20mps
*.hostSource.mobility.waitTime = 200ms

#Destination mobility configured.
*.hostDestination.mobility.typename = "RandomWaypointMobility"
*.hostDestination.mobility.nodeIndex = 3
*.hostDestination.mobility.initialX = 2587.4m
*.hostDestination.mobility.initialY = 874.448m
*.hostDestination.mobility.constraintAreaMinX = 2500m
*.hostDestination.mobility.constraintAreaMinY = 300m
*.hostDestination.mobility.constraintAreaMinZ = 0m
*.hostDestination.mobility.constraintAreaMaxX = 3290m
*.hostDestination.mobility.constraintAreaMaxY = 1800m
*.hostDestination.mobility.constraintAreaMaxZ = 0m
*.hostDestination.mobility.speed    = 20mps
*.hostDestination.mobility.waitTime = 200ms

#Configured
*.hostE.mobility.typename = "RandomWaypointMobility"
*.hostE.mobility.nodeIndex = 4
*.hostE.mobility.initialX = 880.4m
*.hostE.mobility.initialY = 1362.448m
*.hostE.mobility.constraintAreaMinX = 850m 
*.hostE.mobility.constraintAreaMinY = 150m 
*.hostE.mobility.constraintAreaMinZ = 0m   
*.hostE.mobility.constraintAreaMaxX = 2450m
*.hostE.mobility.constraintAreaMaxY = 1750m
*.hostE.mobility.constraintAreaMaxZ = 0m   
*.hostE.mobility.speed    = 20mps
*.hostE.mobility.waitTime = 200ms

#Configured
*.hostF.mobility.typename = "RandomWaypointMobility"
*.hostF.mobility.nodeIndex = 5
*.hostF.mobility.initialX = 2105.4m
*.hostF.mobility.initialY = 344.448m
*.hostF.mobility.constraintAreaMinX = 850m 
*.hostF.mobility.constraintAreaMinY = 150m 
*.hostF.mobility.constraintAreaMinZ = 0m   
*.hostF.mobility.constraintAreaMaxX = 2450m
*.hostF.mobility.constraintAreaMaxY = 1750m
*.hostF.mobility.constraintAreaMaxZ = 0m   
*.hostF.mobility.speed    = 20mps
*.hostF.mobility.waitTime = 200ms





#Configured
*.hostController.mobility.typename = "LinearMobility"
*.hostController.mobility.initialX = 1002.4m
*.hostController.mobility.initialY = 811.448m
*.hostController.mobility.constraintAreaMinX = 1000m 
*.hostController.mobility.constraintAreaMinY = 810m 
*.hostController.mobility.constraintAreaMinZ = 0m   
*.hostController.mobility.constraintAreaMaxX = 1050m
*.hostController.mobility.constraintAreaMaxY = 825m
*.hostController.mobility.constraintAreaMaxZ = 0m   
*.hostController.mobility.speed    = 1mps#DONT CHANGE

####myAdHocNetwork.hostE.wlan[0].radio.transmitter.communicationRange= 1000m	#aodv 15mps'de 900'e düþürülecek. 3mps'ler kýyaslanýrken SDN'de 1070, AODV'de 940m
####myAdHocNetwork.hostSource.wlan[0].radio.transmitter.communicationRange= 1000m	
####myAdHocNetwork.hostF.wlan[0].radio.transmitter.communicationRange= 1000m	
####myAdHocNetwork.hostB.wlan[0].radio.transmitter.communicationRange= 1000m	
####myAdHocNetwork.hostController.wlan[0].radio.transmitter.communicationRange= 2600m	
####myAdHocNetwork.hostA.wlan[0].radio.transmitter.communicationRange= 1000m	
####myAdHocNetwork.hostDestination.wlan[0].radio.transmitter.communicationRange= 1000m	
#20mps'de aodv'de 1000m yap, dsdv ve sdn için 1100m

# AODV 5mps 10mps ve 15mps
# DSDV 5mps 10mps ve 15mps
# SDN  5mps 10mps ve 15mps
####myAdHocNetwork.hostE.wlan[0].radio.transmitter.communicationRange= uniform(950m, 1100m)	
####myAdHocNetwork.hostSource.wlan[0].radio.transmitter.communicationRange= uniform(950m, 1100m)	
####myAdHocNetwork.hostF.wlan[0].radio.transmitter.communicationRange= uniform(950m, 1100m)	
####myAdHocNetwork.hostB.wlan[0].radio.transmitter.communicationRange= uniform(950m, 1100m)	
####myAdHocNetwork.hostController.wlan[0].radio.transmitter.communicationRange= 2600m	
####myAdHocNetwork.hostA.wlan[0].radio.transmitter.communicationRange= uniform(950m, 1100m)	
####myAdHocNetwork.hostDestination.wlan[0].radio.transmitter.communicationRange= uniform(950m, 1100m)	
# AODV 20mps
# DSDV 20mps
# SDN 20mps
myAdHocNetwork.hostE.wlan[0].radio.transmitter.communicationRange= 950m
myAdHocNetwork.hostSource.wlan[0].radio.transmitter.communicationRange= 950m
myAdHocNetwork.hostF.wlan[0].radio.transmitter.communicationRange= 950m
myAdHocNetwork.hostB.wlan[0].radio.transmitter.communicationRange= 950m
myAdHocNetwork.hostController.wlan[0].radio.transmitter.communicationRange= 2600m	
myAdHocNetwork.hostA.wlan[0].radio.transmitter.communicationRange= 950m	
myAdHocNetwork.hostDestination.wlan[0].radio.transmitter.communicationRange= 950m





#Random-Way Point Mobility Config
# SDN Mobility modeli - sadece yüksek hýzlarda (15mps)
# Node hýzýnýn yüksek olduðunu bilen SDN topolojide deðiþiklikler yapmýs oluyor !!!!!!!!!!!!!!!!!!
#Configured
####*.hostA.mobility.typename = "RandomWaypointMobility"
####*.hostA.mobility.nodeIndex = 0
####*.hostA.mobility.initialX = 1983.4m
####*.hostA.mobility.initialY = 1362.448m
####*.hostA.mobility.initialZ = 0m
####*.hostA.mobility.constraintAreaMinX = 1675m 
####*.hostA.mobility.constraintAreaMinY = 900m 
####*.hostA.mobility.constraintAreaMinZ = 0m   
####*.hostA.mobility.constraintAreaMaxX = 2450m
####*.hostA.mobility.constraintAreaMaxY = 1750m
####*.hostA.mobility.constraintAreaMaxZ = 0m   
####*.hostA.mobility.speed    = 10mps
####*.hostA.mobility.waitTime = 0.2s
####
#####Configured
####*.hostB.mobility.typename = "RandomWaypointMobility"
####*.hostB.mobility.nodeIndex = 1
####*.hostB.mobility.initialX = 880.4m
####*.hostB.mobility.initialY = 344.448m
####*.hostB.mobility.initialZ = 0m
####*.hostB.mobility.constraintAreaMinX = 850m 
####*.hostB.mobility.constraintAreaMinY = 150m 
####*.hostB.mobility.constraintAreaMinZ = 0m   
####*.hostB.mobility.constraintAreaMaxX = 1675m
####*.hostB.mobility.constraintAreaMaxY = 900m
####*.hostB.mobility.constraintAreaMaxZ = 0m   
####*.hostB.mobility.speed    = 10mps
####*.hostB.mobility.waitTime = 200ms
####
#####Source mobility configured.
####*.hostSource.mobility.typename = "RandomWaypointMobility"
####*.hostSource.mobility.nodeIndex = 2
####*.hostSource.mobility.initialX = 196.4m
####*.hostSource.mobility.initialY = 875.448m
####*.hostSource.mobility.constraintAreaMinX = 190m
####*.hostSource.mobility.constraintAreaMinY = 600m
####*.hostSource.mobility.constraintAreaMinZ = 0m
####*.hostSource.mobility.constraintAreaMaxX = 650m
####*.hostSource.mobility.constraintAreaMaxY = 1200m
####*.hostSource.mobility.constraintAreaMaxZ = 0m
####*.hostSource.mobility.speed    = 10mps
####*.hostSource.mobility.waitTime = 200ms
####
#####Destination mobility configured.
####*.hostDestination.mobility.typename = "RandomWaypointMobility"
####*.hostDestination.mobility.nodeIndex = 3
####*.hostDestination.mobility.initialX = 2587.4m
####*.hostDestination.mobility.initialY = 874.448m
####*.hostDestination.mobility.constraintAreaMinX = 2500m
####*.hostDestination.mobility.constraintAreaMinY = 800m
####*.hostDestination.mobility.constraintAreaMinZ = 0m
####*.hostDestination.mobility.constraintAreaMaxX = 2700m
####*.hostDestination.mobility.constraintAreaMaxY = 1350m
####*.hostDestination.mobility.constraintAreaMaxZ = 0m
####*.hostDestination.mobility.speed    = 10mps
####*.hostDestination.mobility.waitTime = 200ms
####
#####Configured
####*.hostE.mobility.typename = "RandomWaypointMobility"
####*.hostE.mobility.nodeIndex = 4
####*.hostE.mobility.initialX = 880.4m
####*.hostE.mobility.initialY = 1362.448m
####*.hostE.mobility.constraintAreaMinX = 850m 
####*.hostE.mobility.constraintAreaMinY = 900m 
####*.hostE.mobility.constraintAreaMinZ = 0m   
####*.hostE.mobility.constraintAreaMaxX = 1675m
####*.hostE.mobility.constraintAreaMaxY = 1750m
####*.hostE.mobility.constraintAreaMaxZ = 0m   
####*.hostE.mobility.speed    = 10mps
####*.hostE.mobility.waitTime = 200ms
####
#####Configured
####*.hostF.mobility.typename = "RandomWaypointMobility"
####*.hostF.mobility.nodeIndex = 5
####*.hostF.mobility.initialX = 2105.4m
####*.hostF.mobility.initialY = 344.448m
####*.hostF.mobility.constraintAreaMinX = 1675m 
####*.hostF.mobility.constraintAreaMinY = 150m 
####*.hostF.mobility.constraintAreaMinZ = 0m   
####*.hostF.mobility.constraintAreaMaxX = 2450m
####*.hostF.mobility.constraintAreaMaxY = 900m
####*.hostF.mobility.constraintAreaMaxZ = 0m   
####*.hostF.mobility.speed    = 10mps
####*.hostF.mobility.waitTime = 200ms
####
#####Configured
####*.hostController.mobility.typename = "LinearMobility"
####*.hostController.mobility.initialX = 1002.4m
####*.hostController.mobility.initialY = 811.448m
####*.hostController.mobility.constraintAreaMinX = 1000m 
####*.hostController.mobility.constraintAreaMinY = 810m 
####*.hostController.mobility.constraintAreaMinZ = 0m   
####*.hostController.mobility.constraintAreaMaxX = 1050m
####*.hostController.mobility.constraintAreaMaxY = 825m
####*.hostController.mobility.constraintAreaMaxZ = 0m   
####*.hostController.mobility.speed    = 1mps
####
####myAdHocNetwork.hostE.wlan[0].radio.transmitter.communicationRange= 1000m	#1050m: 15mps and 970m: 10mps
####myAdHocNetwork.hostSource.wlan[0].radio.transmitter.communicationRange= 1000m	
####myAdHocNetwork.hostF.wlan[0].radio.transmitter.communicationRange= 1000m	
####myAdHocNetwork.hostB.wlan[0].radio.transmitter.communicationRange= 1000m	
####myAdHocNetwork.hostController.wlan[0].radio.transmitter.communicationRange= 2600m	
####myAdHocNetwork.hostA.wlan[0].radio.transmitter.communicationRange= 1000m	
####myAdHocNetwork.hostDestination.wlan[0].radio.transmitter.communicationRange= 1000m	









#**************************
#Both Host Source and Host Destination Config
#**************************
*.host*.**.bitrate = 6Mbps






#**************************
#Wireless LAN Config
#**************************
*.host*.wlan[0].typename = "AckingWirelessInterface"
*.host*.wlan[0].mac.useAck = false
*.host*.wlan[0].mac.fullDuplex = true
#*.host*.wlan[0].radio.transmitter.communicationRange = 600m			#default:1000m Approximate value according to 802.11p
		



*.host*.wlan[0].radio.receiver.ignoreInterference = true
*.host*.wlan[0].radio.transmitter.interferenceRange = 0m
*.hostSource.wlan[0].radio.displayCommunicationRange = true
*.hostDestination.wlan[0].radio.displayCommunicationRange = true
*.host*.wlan[0].radio.displayInterferenceRange = true
*.host*.wlan[0].mac.headerLength = 23B


#**************************
#Visualizer Config
#**************************
*.visualizer.sceneVisualizer.descriptionFigure = "title"
*.visualizer.mediumVisualizer.displaySignals = false
*.visualizer.physicalLinkVisualizer.displayLinks = true
*.visualizer.physicalLinkVisualizer.packetFilter = "UDPData*"
*.visualizer.dataLinkVisualizer.displayLinks = true
*.visualizer.dataLinkVisualizer.packetFilter = ""					#Do not show any DLL packet
*.visualizer.networkRouteVisualizer.displayRoutes = true
*.visualizer.*LinkVisualizer.lineShift = 10
*.visualizer.networkRouteVisualizer.lineShift = 5
*.visualizer.networkRouteVisualizer.packetFilter = "UDPData*"


#**************************
# Configurator Config
#**************************
*.hostController.forwarding = false							#Controller is just routing table provider for now
*.host*.forwarding = true									#For ad-hoc nodes, forwarding must be activated
*.host*.ipv4.routingTable.netmaskRoutes = ""
*.configurator.config = xmldoc("Ip4AddressConfig.xml")		#Node address configuration
*.configurator.optimizeRoutes = false						#Used only if addStaticRoutes is true

*.visualizer.interfaceTableVisualizer.displayInterfaceTables = true










#-----------------------------------------------------------------------------
#-----------------------------------------------------------------------------
#-----------------------------------------------------------------------------
[Config AdHocConfig]
description = Additional features : CsmaCa + Energy Model + Mobility + Node type as AODV + Radio Model
extends = InitialConfig

#**************************
# CSMA-CA config
#**************************
*.host*.wlan[0].typename = "WirelessInterface"
*.host*.wlan[0].radio.typename = "UnitDiskRadio"
*.host*.wlan[0].mac.typename = "CsmaCaMac"
*.host*.wlan[0].mac.ackTimeout = 300us
*.host*.wlan[0].mac.useAck = false #SDN için kapatýldý. AODV için açýk olmalý
*.host*.wlan[0].mac.queue.packetCapacity = 20

*.visualizer.mobilityVisualizer.displayMobility = true # master switch
*.visualizer.mobilityVisualizer.displayPositions = true
*.visualizer.mobilityVisualizer.displayOrientations = true
*.visualizer.mobilityVisualizer.displayVelocities = true
*.visualizer.mobilityVisualizer.displayMovementTrails = true
*.visualizer.mobilityVisualizer.orientationLineWidth = 3
#**************************
#AODV Node Config
#**************************
*.configurator.addStaticRoutes = false
*.host*.typename = "AodvRouter"
*.hostDestination.wlan[0].radio.displayCommunicationRange = false
*.hostA.wlan[0].radio.displayCommunicationRange = true
*.hostB.wlan[0].radio.displayCommunicationRange = false
*.hostE.wlan[0].radio.displayCommunicationRange = true
*.hostF.wlan[0].radio.displayCommunicationRange = false
*.hostController.wlan[0].radio.displayCommunicationRange = false
*.visualizer.dataLinkVisualizer.packetFilter = "AODV*"   

**.maxTransmissionDuration = 30ms
*.host*.*.activeRouteTimeout = 1s
*.host*.*.deletePeriod = 0.5s












#-----------------------------------------------------------------------------
#-----------------------------------------------------------------------------
#-----------------------------------------------------------------------------
[Config DsdvConfig]
description = Additional features : CsmaCa + Energy Model + Mobility + Node type as DSDV + Radio Model
extends = InitialConfig

#**************************
# CSMA-CA config
#**************************
*.host*.wlan[0].typename = "WirelessInterface"
*.host*.wlan[0].radio.typename = "UnitDiskRadio"
*.host*.wlan[0].mac.typename = "CsmaCaMac"
*.host*.wlan[0].mac.ackTimeout = 300us
*.host*.wlan[0].mac.useAck = true
*.host*.wlan[0].mac.queue.packetCapacity = 20

*.visualizer.mobilityVisualizer.displayMobility = false # master switch
*.visualizer.mobilityVisualizer.displayPositions = true
*.visualizer.mobilityVisualizer.displayOrientations = true
*.visualizer.mobilityVisualizer.displayVelocities = false
*.visualizer.mobilityVisualizer.displayMovementTrails = false
*.visualizer.mobilityVisualizer.orientationLineWidth = 3
#**************************
#DSDV Node Config
#**************************
*.configurator.addStaticRoutes = false

*.host*.typename = "DsdvRouter"

*.hostDestination.wlan[0].radio.displayCommunicationRange = true
*.hostA.wlan[0].radio.displayCommunicationRange = true
*.hostB.wlan[0].radio.displayCommunicationRange = true
*.hostE.wlan[0].radio.displayCommunicationRange = true
*.hostF.wlan[0].radio.displayCommunicationRange = true
*.hostController.wlan[0].radio.displayCommunicationRange = true
*.visualizer.dataLinkVisualizer.packetFilter = "DSDV*"   

**.maxTransmissionDuration = 30ms









#-----------------------------------------------------------------------------
#-----------------------------------------------------------------------------
#-----------------------------------------------------------------------------
[Config GpsrConfig]
description = Additional features : CsmaCa + Energy Model + Mobility + Node type as GPSR + Radio Model
extends = InitialConfig

#**************************
# CSMA-CA config
#**************************
*.host*.wlan[0].typename = "WirelessInterface"
*.host*.wlan[0].radio.typename = "UnitDiskRadio"
*.host*.wlan[0].mac.typename = "CsmaCaMac"
*.host*.wlan[0].mac.ackTimeout = 300us
*.host*.wlan[0].mac.useAck = true
*.host*.wlan[0].mac.queue.packetCapacity = 20

*.visualizer.mobilityVisualizer.displayMobility = false # master switch
*.visualizer.mobilityVisualizer.displayPositions = true
*.visualizer.mobilityVisualizer.displayOrientations = true
*.visualizer.mobilityVisualizer.displayVelocities = false
*.visualizer.mobilityVisualizer.displayMovementTrails = false
*.visualizer.mobilityVisualizer.orientationLineWidth = 3
#**************************
#GPSR Node Config
#**************************
*.configurator.addStaticRoutes = false

*.host*.typename = "GpsrRouter"

*.hostDestination.wlan[0].radio.displayCommunicationRange = true
*.hostA.wlan[0].radio.displayCommunicationRange = true
*.hostB.wlan[0].radio.displayCommunicationRange = true
*.hostE.wlan[0].radio.displayCommunicationRange = true
*.hostF.wlan[0].radio.displayCommunicationRange = true
*.hostController.wlan[0].radio.displayCommunicationRange = true
*.visualizer.dataLinkVisualizer.packetFilter = "GPSR*"   

**.maxTransmissionDuration = 30ms



